*HEADING
SDT FEMLink abaqus write on 20-Nov-2017 at 11h13:14 
** $Revision: 1.360 $  $Date: 2017/11/17 17:33:35 $
*NODE, NSET=ALLNODES, SYSTEM=R
 1,  0.00000000,  0.00000000,  0.00000000
 2,  0.00000000,  0.00000000,  0.15000000
 3,  0.40000000,  1.00000000,  0.17600000
 4,  0.40000000,  0.90000000,  0.17600000
 5,  0.13750000,  0.00000000,  0.00000000
 6,  0.13750000,  0.00000000,  0.15000000
 7,  0.27500000,  0.00000000,  0.00000000
 8,  0.27500000,  0.00000000,  0.15000000
 9,  0.41250000,  0.00000000,  0.00000000
 10,  0.41250000,  0.00000000,  0.15000000
 11,  0.55000000,  0.00000000,  0.00000000
 12,  0.55000000,  0.00000000,  0.15000000
 13,  0.65000000,  0.00000000,  0.00000000
 14,  0.65000000,  0.00000000,  0.15000000
 15,  0.80000000,  0.00000000,  0.00000000
 16,  0.80000000,  0.00000000,  0.15000000
 17,  0.95000000,  0.00000000,  0.00000000
 18,  0.95000000,  0.00000000,  0.15000000
 19,  1.10000000,  0.00000000,  0.00000000
 20,  1.10000000,  0.00000000,  0.15000000
** ... 124 like lines cut
** Group 1 MatId 1 ProId 3
*ELEMENT, TYPE=S4, ELSET=Set_1_3
1 ,1 ,2 ,6 ,5 
2 ,5 ,6 ,8 ,7 
3 ,7 ,8 ,10 ,9 
4 ,9 ,10 ,12 ,11 
5 ,11 ,12 ,14 ,13 
6 ,13 ,14 ,16 ,15 
7 ,15 ,16 ,18 ,17 
8 ,17 ,18 ,20 ,19 
9 ,19 ,20 ,22 ,21 
10 ,21 ,22 ,24 ,23 
11 ,23 ,24 ,26 ,25 
** Group 2 MatId 1 ProId 1
*ELEMENT, TYPE=S4, ELSET=Set_1_1
12 ,24 ,26 ,28 ,27 
13 ,27 ,28 ,30 ,29 
14 ,29 ,30 ,32 ,31 
** Group 3 MatId 1 ProId 1
*ELEMENT, TYPE=S4, ELSET=Set_1_1
15 ,33 ,34 ,36 ,35 
16 ,35 ,36 ,32 ,31 
17 ,31 ,32 ,38 ,37 
18 ,37 ,38 ,40 ,39 
** Group 4 MatId 1 ProId 1
*ELEMENT, TYPE=S4, ELSET=Set_1_1
19 ,47 ,43 ,3 ,46 
20 ,48 ,44 ,43 ,47 
21 ,49 ,45 ,44 ,48 
22 ,50 ,41 ,45 ,49 
23 ,51 ,47 ,46 ,4 
24 ,52 ,48 ,47 ,51 
25 ,53 ,49 ,48 ,52 
26 ,42 ,50 ,49 ,53 
** Group 5 MatId 1 ProId 1
*ELEMENT, TYPE=S4, ELSET=Set_1_1
27 ,54 ,58 ,62 ,61 
28 ,58 ,59 ,63 ,62 
29 ,59 ,60 ,64 ,63 
30 ,60 ,56 ,65 ,64 
31 ,61 ,62 ,66 ,55 
32 ,62 ,63 ,67 ,66 
33 ,63 ,64 ,68 ,67 
34 ,64 ,65 ,57 ,68 
** Group 6 MatId 1 ProId 4
*ELEMENT, TYPE=S4, ELSET=Set_1_4
35 ,76 ,73 ,72 ,75 
36 ,79 ,76 ,75 ,78 
37 ,82 ,79 ,78 ,81 
38 ,85 ,82 ,81 ,84 
39 ,88 ,85 ,84 ,87 
40 ,91 ,88 ,87 ,90 
41 ,94 ,91 ,90 ,93 
42 ,97 ,94 ,93 ,96 
43 ,100 ,97 ,96 ,99 
44 ,103 ,100 ,99 ,102 
45 ,106 ,103 ,102 ,105 
46 ,109 ,106 ,105 ,108 
47 ,112 ,109 ,108 ,111 
48 ,115 ,112 ,111 ,114 
49 ,118 ,115 ,114 ,117 
50 ,121 ,118 ,117 ,120 
51 ,124 ,121 ,120 ,123 
** Group 7 MatId 1 ProId 1
*ELEMENT, TYPE=S4, ELSET=Set_1_1
52 ,70 ,69 ,44 ,52 
53 ,53 ,45 ,69 ,70 
54 ,72 ,70 ,52 ,71 
55 ,73 ,53 ,70 ,72 
56 ,75 ,72 ,71 ,74 
57 ,78 ,75 ,74 ,77 
58 ,81 ,78 ,77 ,80 
59 ,84 ,81 ,80 ,83 
60 ,87 ,84 ,83 ,86 
61 ,90 ,87 ,86 ,89 
62 ,93 ,90 ,89 ,92 
63 ,96 ,93 ,92 ,95 
64 ,99 ,96 ,95 ,98 
65 ,102 ,99 ,98 ,101 
66 ,105 ,102 ,101 ,104 
67 ,108 ,105 ,104 ,107 
68 ,111 ,108 ,107 ,110 
69 ,114 ,111 ,110 ,113 
70 ,117 ,114 ,113 ,116 
71 ,120 ,117 ,116 ,119 
** ... 5 like lines cut
** Group 8 MatId 2 ProId 2
*ELEMENT, TYPE=S4, ELSET=Set_2_2
77 ,139 ,141 ,12 ,135 
78 ,141 ,140 ,137 ,12 
79 ,135 ,12 ,14 ,136 
80 ,12 ,137 ,138 ,14 
81 ,136 ,14 ,143 ,142 
82 ,14 ,138 ,144 ,143 
** Group 9 MatId 0 ProId 0
*ELEMENT, TYPE=SPRING2, ELSET=Set_0_0_celas1
91 , 95, 135
92 , 97, 136
93 , 98, 137
94 , 100, 138
*SPRING, ELSET=Set_0_0_celas1
1, 1
1.000000000000000e+12
*ELEMENT, TYPE=SPRING2, ELSET=Set_0_0_celas2
95 , 95, 135
96 , 97, 136
97 , 98, 137
98 , 100, 138
*SPRING, ELSET=Set_0_0_celas2
2, 2
1.000000000000000e+12
*ELEMENT, TYPE=SPRING2, ELSET=Set_0_0_celas3
99 , 95, 135
100 , 97, 136
101 , 98, 137
102 , 100, 138
*SPRING, ELSET=Set_0_0_celas3
3, 3
1.000000000000000e+12
*ELEMENT, TYPE=SPRING2, ELSET=Set_0_0_celas4
103 , 95, 135
104 , 97, 136
105 , 98, 137
106 , 100, 138
*SPRING, ELSET=Set_0_0_celas4
4, 4
1.000000000000000e+12
*ELEMENT, TYPE=SPRING2, ELSET=Set_0_0_celas5
107 , 95, 135
108 , 97, 136
109 , 98, 137
110 , 100, 138
*SPRING, ELSET=Set_0_0_celas5
5, 5
1.000000000000000e+12
** Group 10 MatId 0 ProId 0
*ELEMENT, TYPE=MASS, ELSET=Set_0_0_mass1_1
111 , 47
112 , 62
*MASS, ELSET=Set_0_0_mass1_1
2.000000000000000e-01, 2.000000000000000e-01, 2.000000000000000e-01
*ELEMENT, TYPE=MASS, ELSET=Set_0_0_mass1_2
113 , 31
114 , 32
*MASS, ELSET=Set_0_0_mass1_2
5.000000000000000e-01, 5.000000000000000e-01, 5.000000000000000e-01
****************************************
**                                    **
**                                    **
**	    BOUNDARY, LOAD CASE           **
**                                    **
**                                    **
****************************************
**************************************************************************
**                                    **
**                                    **
**          ELSET, MAT, PROP          **
**                                    **
**                                    **
****************************************
*ORIENTATION, NAME=global, SYSTEM=RECTANGULAR, DEFINITION=COORDINATES
1,0,0,0,1,0,0,0,0
*SHELL SECTION,ELSET=Set_1_1, SECTION INTEGRATION=SIMPSON,MATERIAL=GENERAL_ISOTROPIC_1
0.01
*SHELL SECTION,ELSET=Set_2_2, SECTION INTEGRATION=SIMPSON,MATERIAL=GENERAL_ISOTROPIC_2
0.016
*SHELL SECTION,ELSET=Set_1_3, SECTION INTEGRATION=SIMPSON,MATERIAL=GENERAL_ISOTROPIC_1
0.05
*SHELL SECTION,ELSET=Set_1_4, SECTION INTEGRATION=SIMPSON,MATERIAL=GENERAL_ISOTROPIC_1
0.011
**MATERIAL NAME=EMPTY_0 empty material
*MATERIAL,NAME=GENERAL_ISOTROPIC_1
*ELASTIC,TYPE=ISOTROPIC
7.2000000000e+10,3.4000000000e-01
*DENSITY
2.7000000000e+03
*MATERIAL,NAME=GENERAL_ISOTROPIC_2
*ELASTIC,TYPE=ISOTROPIC
2.1000000000e+11,2.9000000000e-01
*DENSITY
7.8000000000e+03
****************************************
**                                    **
**                                    **
**         RUNNING   COMMAND          **
**                                    **
**                                    **
****************************************
